280
  MOE2022           3D

 56 58  0  0  1  0  0  0  0  0999 V2000
    3.2270   17.1890   19.4280 O   0  0  0  0  0  0  0  0  0  0  0  0
    2.3110   17.5520   18.6930 C   0  0  0  0  0  0  0  0  0  0  0  0
    2.4880   18.6760   17.9260 N   0  0  0  0  0  0  0  0  0  0  0  0
    1.0400   16.8280   18.5710 C   0  0  0  0  0  0  0  0  0  0  0  0
    0.0120   17.2800   17.7240 C   0  0  0  0  0  0  0  0  0  0  0  0
   -1.1650   16.5540   17.5850 C   0  0  0  0  0  0  0  0  0  0  0  0
    0.8420   15.6330   19.2790 C   0  0  0  0  0  0  0  0  0  0  0  0
    3.7790   19.1300   17.4100 C   0  0  1  0  0  0  0  0  0  0  0  0
   -0.3340   14.9060   19.1270 C   0  0  0  0  0  0  0  0  0  0  0  0
   -1.3380   15.3650   18.2840 C   0  0  0  0  0  0  0  0  0  0  0  0
    3.7290   19.1550   15.8800 C   0  0  0  0  0  0  0  0  0  0  0  0
    3.3830   18.0010   15.1560 C   0  0  0  0  0  0  0  0  0  0  0  0
    3.2260   16.7930   15.7830 O   0  0  0  0  0  0  0  0  0  0  0  0
    3.1910   18.0290   13.7790 C   0  0  0  0  0  0  0  0  0  0  0  0
    3.3990   19.2240   13.0990 C   0  0  0  0  0  0  0  0  0  0  0  0
    4.1670   20.4720   18.0560 C   0  0  0  0  0  0  0  0  0  0  0  0
    3.1790   19.3300   11.7390 O   0  0  0  0  0  0  0  0  0  0  0  0
    3.8130   20.3680   13.7830 C   0  0  0  0  0  0  0  0  0  0  0  0
    5.1750   21.2760   17.2210 C   0  0  1  0  0  0  0  0  0  0  0  0
    3.9970   20.3330   15.1670 C   0  0  0  0  0  0  0  0  0  0  0  0
    3.6340   18.4450   10.6670 C   0  0  0  0  0  0  0  0  0  0  0  0
    4.4830   21.5830   15.8830 C   0  0  0  0  0  0  0  0  0  0  0  0
    3.0330   17.0540   10.6680 C   0  0  0  0  0  0  0  0  0  0  0  0
    5.6800   22.5540   17.9140 C   0  0  0  0  0  0  0  0  0  0  0  0
    1.8930   16.8440   10.2610 O   0  0  0  0  0  0  0  0  0  0  0  0
    3.8330   16.0740   11.1160 N   0  0  0  0  0  0  0  0  0  0  0  0
    3.4960   14.6560   11.1400 C   0  0  0  0  0  0  0  0  0  0  0  0
    6.6460   23.1330   17.3710 O   0  0  0  0  0  0  0  0  0  0  0  0
    4.1940   13.9230    9.9870 C   0  0  0  0  0  0  0  0  0  0  0  0
    5.7200   13.8800   10.1440 C   0  0  0  0  0  0  0  0  0  0  0  0
    5.1210   22.9340   18.9700 O   0  5  0  0  0  0  0  0  0  0  0  0
    1.6770   19.0250   17.3980 H   0  0  0  0  0  0  0  0  0  0  0  0
    0.1200   18.1780   17.1750 H   0  0  0  0  0  0  0  0  0  0  0  0
   -1.9300   16.9060   16.9430 H   0  0  0  0  0  0  0  0  0  0  0  0
    1.6000   15.2690   19.9230 H   0  0  0  0  0  0  0  0  0  0  0  0
    4.5450   18.4250   17.6830 H   0  0  0  0  0  0  0  0  0  0  0  0
   -0.4680   13.9940   19.6440 H   0  0  0  0  0  0  0  0  0  0  0  0
   -2.2330   14.8090   18.1710 H   0  0  0  0  0  0  0  0  0  0  0  0
    2.8940   16.1190   15.1590 H   0  0  0  0  0  0  0  0  0  0  0  0
    2.8720   17.1580   13.2740 H   0  0  0  0  0  0  0  0  0  0  0  0
    3.2680   21.0780   18.1900 H   0  0  0  0  0  0  0  0  0  0  0  0
    4.5880   20.2690   19.0410 H   0  0  0  0  0  0  0  0  0  0  0  0
    3.9850   21.2650   13.2460 H   0  0  0  0  0  0  0  0  0  0  0  0
    6.0430   20.6440   17.0300 H   0  0  0  0  0  0  0  0  0  0  0  0
    3.3930   18.9280    9.7300 H   0  0  0  0  0  0  0  0  0  0  0  0
    4.7110   18.3900   10.7040 H   0  0  0  0  0  0  0  0  0  0  0  0
    3.6310   22.2420   16.0570 H   0  0  0  0  0  0  0  0  0  0  0  0
    5.1900   22.1090   15.2390 H   0  0  0  0  0  0  0  0  0  0  0  0
    4.7510   16.3190   11.4480 H   0  0  0  0  0  0  0  0  0  0  0  0
    3.8120   14.2240   12.0900 H   0  0  0  0  0  0  0  0  0  0  0  0
    2.4170   14.5230   11.0460 H   0  0  0  0  0  0  0  0  0  0  0  0
    3.8210   12.8980    9.9550 H   0  0  0  0  0  0  0  0  0  0  0  0
    3.9390   14.4080    9.0430 H   0  0  0  0  0  0  0  0  0  0  0  0
    6.1320   14.8890   10.1610 H   0  0  0  0  0  0  0  0  0  0  0  0
    5.9770   13.3630   11.0690 H   0  0  0  0  0  0  0  0  0  0  0  0
    6.1550   13.3370    9.3040 H   0  0  0  0  0  0  0  0  0  0  0  0
  1  2  2  0  0  0  0
  2  3  1  0  0  0  0
  2  4  1  0  0  0  0
  3  8  1  0  0  0  0
  3 32  1  0  0  0  0
  4  5  2  0  0  0  0
  4  7  1  0  0  0  0
  5  6  1  0  0  0  0
  5 33  1  0  0  0  0
  6 10  2  0  0  0  0
  6 34  1  0  0  0  0
  7  9  2  0  0  0  0
  7 35  1  0  0  0  0
  8 11  1  0  0  0  0
  8 16  1  0  0  0  0
  8 36  1  0  0  0  0
  9 10  1  0  0  0  0
  9 37  1  0  0  0  0
 10 38  1  0  0  0  0
 11 12  1  0  0  0  0
 11 20  2  0  0  0  0
 12 13  1  0  0  0  0
 12 14  2  0  0  0  0
 13 39  1  0  0  0  0
 14 15  1  0  0  0  0
 14 40  1  0  0  0  0
 15 17  1  0  0  0  0
 15 18  2  0  0  0  0
 16 19  1  0  0  0  0
 16 41  1  0  0  0  0
 16 42  1  0  0  0  0
 17 21  1  0  0  0  0
 18 20  1  0  0  0  0
 18 43  1  0  0  0  0
 19 22  1  0  0  0  0
 19 24  1  0  0  0  0
 19 44  1  0  0  0  0
 20 22  1  0  0  0  0
 21 23  1  0  0  0  0
 21 45  1  0  0  0  0
 21 46  1  0  0  0  0
 22 47  1  0  0  0  0
 22 48  1  0  0  0  0
 23 25  2  0  0  0  0
 23 26  1  0  0  0  0
 24 28  2  0  0  0  0
 24 31  1  0  0  0  0
 26 27  1  0  0  0  0
 26 49  1  0  0  0  0
 27 29  1  0  0  0  0
 27 50  1  0  0  0  0
 27 51  1  0  0  0  0
 29 30  1  0  0  0  0
 29 52  1  0  0  0  0
 29 53  1  0  0  0  0
 30 54  1  0  0  0  0
 30 55  1  0  0  0  0
 30 56  1  0  0  0  0
M  CHG  1  31  -1
M  END
